data_Ho2PdSi3_D1
_audit_creation_method	'Created with CONVERT.DLL (www.crystalimpact.com)'
_audit_creation_date	2011-07-13
_audit_update_record	2011-07-13
_chemical_formula_sum	'Ho2 Pd Si3'
_chemical_formula_weight	962.740
_cell_length_a	 8.1
_cell_length_b	 8.1
_cell_length_c	 32.0
_cell_angle_alpha	90.000
_cell_angle_beta	90.000
_cell_angle_gamma	120.000
_cell_volume	56.8199
_symmetry_int_tables_number	1
_symmetry_space_group_name_H-M	'P 1'
_symmetry_space_group_name_Hall	'P_1'

loop_
_symmetry_equiv_pos_site_id
_symmetry_equiv_pos_as_xyz
1 x,y,z

loop_
_atom_type_symbol
_atom_type_oxidation_number
_atom_type_radius_bond
Ho	?	1.200
Pd	?	1.200
Si	?	1.200

loop_
_atom_site_label
_atom_site_type_symbol
_atom_site_fract_x
_atom_site_fract_y
_atom_site_fract_z
_atom_site_occupancy
_atom_site_symmetry_multiplicity
_atom_site_Wyckoff_symbol
_atom_site_attached_hydrogens
_atom_site_calc_flag
_atom_site_thermal_displace_type
_atom_site_u_iso_or_equiv
Ho11	Ho	0.0	0.0	0.0	1.000	1	a	?	d	?	?
Ho12	Ho	0.5	0.0	0.0	1.000	1	a	?	d	?	?
Ho13	Ho	0.0	0.5	0.0	1.000	1	a	?	d	?	?
Ho14	Ho	0.5	0.5	0.0	1.000	1	a	?	d	?	?
Ho15	Ho	0.0	0.0	0.125	1.000	1	a	?	d	?	?
Ho16	Ho	0.5	0.0	0.125	1.000	1	a	?	d	?	?
Ho17	Ho	0.0	0.5	0.125	1.000	1	a	?	d	?	?
Ho18	Ho	0.5	0.5	0.125	1.000	1	a	?	d	?	?
Ho19	Ho	0.0	0.0	0.25	1.000	1	a	?	d	?	?
Ho110	Ho	0.5	0.0	0.25	1.000	1	a	?	d	?	?
Ho111	Ho	0.0	0.5	0.25	1.000	1	a	?	d	?	?
Ho112	Ho	0.5	0.5	0.25	1.000	1	a	?	d	?	?
Ho113	Ho	0.0	0.0	0.375	1.000	1	a	?	d	?	?
Ho114	Ho	0.5	0.0	0.375	1.000	1	a	?	d	?	?
Ho115	Ho	0.0	0.5	0.375	1.000	1	a	?	d	?	?
Ho116	Ho	0.5	0.5	0.375	1.000	1	a	?	d	?	?
Ho117	Ho	0.0	0.0	0.5	1.000	1	a	?	d	?	?
Ho118	Ho	0.5	0.0	0.5	1.000	1	a	?	d	?	?
Ho119	Ho	0.0	0.5	0.5	1.000	1	a	?	d	?	?
Ho120	Ho	0.5	0.5	0.5	1.000	1	a	?	d	?	?
Ho121	Ho	0.0	0.0	0.625	1.000	1	a	?	d	?	?
Ho122	Ho	0.5	0.0	0.625	1.000	1	a	?	d	?	?
Ho123	Ho	0.0	0.5	0.625	1.000	1	a	?	d	?	?
Ho124	Ho	0.5	0.5	0.625	1.000	1	a	?	d	?	?
Ho125	Ho	0.0	0.0	0.75	1.000	1	a	?	d	?	?
Ho126	Ho	0.5	0.0	0.75	1.000	1	a	?	d	?	?
Ho127	Ho	0.0	0.5	0.75	1.000	1	a	?	d	?	?
Ho128	Ho	0.5	0.5	0.75	1.000	1	a	?	d	?	?
Ho129	Ho	0.0	0.0	0.875	1.000	1	a	?	d	?	?
Ho130	Ho	0.5	0.0	0.875	1.000	1	a	?	d	?	?
Ho131	Ho	0.0	0.5	0.875	1.000	1	a	?	d	?	?
Ho132	Ho	0.5	0.5	0.875	1.000	1	a	?	d	?	?

Pd11	Pd	0.666666666667	0.333333333333	0.0625	1.000	1	a	?	d	?	?
Pd12	Pd	0.333333333333	0.666666666667	0.0625	1.000	1	a	?	d	?	?
Pd13	Pd	0.833333333333	0.166666666667	0.1875	1.000	1	a	?	d	?	?
Pd14	Pd	0.166666666667	0.833333333333	0.1875	1.000	1	a	?	d	?	?
Pd15	Pd	0.166666666667	0.333333333333	0.3125	1.000	1	a	?	d	?	?
Pd16	Pd	0.833333333333	0.666666666667	0.3125	1.000	1	a	?	d	?	?
Pd17	Pd	0.333333333333	0.166666666667	0.4375	1.000	1	a	?	d	?	?
Pd18	Pd	0.666666666667	0.833333333333	0.4375	1.000	1	a	?	d	?	?
Pd19	Pd	0.833333333333	0.166666666667	0.5625	1.000	1	a	?	d	?	?
Pd110	Pd	0.166666666667	0.833333333333	0.5625	1.000	1	a	?	d	?	?
Pd21	Pd	0.666666666667	0.333333333333	0.6875	1.000	1	a	?	d	?	?
Pd22	Pd	0.333333333333	0.666666666667	0.6875	1.000	1	a	?	d	?	?
Pd23	Pd	0.333333333333	0.166666666667	0.8125	1.000	1	a	?	d	?	?
Pd24	Pd	0.666666666667	0.833333333333	0.8125	1.000	1	a	?	d	?	?
Pd25	Pd	0.166666666667	0.333333333333	0.9375	1.000	1	a	?	d	?	?
Pd26	Pd	0.833333333333	0.666666666667	0.9375	1.000	1	a	?	d	?	?

Si11	Si	0.166666666667	0.333333333333	0.0625	1.000	1	a	?	d	?	?
Si12	Si	0.333333333333	0.166666666667	0.0625	1.000	1	a	?	d	?	?
Si13	Si	0.833333333333	0.166666666667	0.0625	1.000	1	a	?	d	?	?
Si14	Si	0.166666666667	0.833333333333	0.0625	1.000	1	a	?	d	?	?
Si15	Si	0.666666666667	0.833333333333	0.0625	1.000	1	a	?	d	?	?
Si16	Si	0.833333333333	0.666666666667	0.0625	1.000	1	a	?	d	?	?
Si17	Si	0.166666666667	0.333333333333	0.1875	1.000	1	a	?	d	?	?
Si18	Si	0.333333333333	0.166666666667	0.1875	1.000	1	a	?	d	?	?
Si19	Si	0.666666666667	0.333333333333	0.1875	1.000	1	a	?	d	?	?
Si110	Si	0.333333333333	0.666666666667	0.1875	1.000	1	a	?	d	?	?
Si111	Si	0.666666666667	0.833333333333	0.1875	1.000	1	a	?	d	?	?
Si112	Si	0.833333333333	0.666666666667	0.1875	1.000	1	a	?	d	?	?
Si113	Si	0.333333333333	0.166666666667	0.3125	1.000	1	a	?	d	?	?
Si114	Si	0.666666666667	0.333333333333	0.3125	1.000	1	a	?	d	?	?
Si115	Si	0.833333333333	0.166666666667	0.3125	1.000	1	a	?	d	?	?
Si116	Si	0.166666666667	0.833333333333	0.3125	1.000	1	a	?	d	?	?
Si117	Si	0.333333333333	0.666666666667	0.3125	1.000	1	a	?	d	?	?
Si118	Si	0.666666666667	0.833333333333	0.3125	1.000	1	a	?	d	?	?
Si119	Si	0.166666666667	0.333333333333	0.4375	1.000	1	a	?	d	?	?
Si120	Si	0.666666666667	0.333333333333	0.4375	1.000	1	a	?	d	?	?
Si121	Si	0.833333333333	0.166666666667	0.4375	1.000	1	a	?	d	?	?
Si122	Si	0.166666666667	0.833333333333	0.4375	1.000	1	a	?	d	?	?
Si123	Si	0.333333333333	0.666666666667	0.4375	1.000	1	a	?	d	?	?
Si124	Si	0.833333333333	0.666666666667	0.4375	1.000	1	a	?	d	?	?
Si125	Si	0.166666666667	0.333333333333	0.5625	1.000	1	a	?	d	?	?
Si126	Si	0.333333333333	0.166666666667	0.5625	1.000	1	a	?	d	?	?
Si127	Si	0.666666666667	0.333333333333	0.5625	1.000	1	a	?	d	?	?
Si128	Si	0.333333333333	0.666666666667	0.5625	1.000	1	a	?	d	?	?
Si129	Si	0.666666666667	0.833333333333	0.5625	1.000	1	a	?	d	?	?
Si130	Si	0.833333333333	0.666666666667	0.5625	1.000	1	a	?	d	?	?
Si131	Si	0.166666666667	0.333333333333	0.6875	1.000	1	a	?	d	?	?
Si132	Si	0.333333333333	0.166666666667	0.6875	1.000	1	a	?	d	?	?
Si133	Si	0.833333333333	0.166666666667	0.6875	1.000	1	a	?	d	?	?
Si134	Si	0.166666666667	0.833333333333	0.6875	1.000	1	a	?	d	?	?
Si135	Si	0.666666666667	0.833333333333	0.6875	1.000	1	a	?	d	?	?
Si136	Si	0.833333333333	0.666666666667	0.6875	1.000	1	a	?	d	?	?
Si137	Si	0.166666666667	0.333333333333	0.8125	1.000	1	a	?	d	?	?
Si138	Si	0.666666666667	0.333333333333	0.8125	1.000	1	a	?	d	?	?
Si139	Si	0.833333333333	0.166666666667	0.8125	1.000	1	a	?	d	?	?
Si140	Si	0.166666666667	0.833333333333	0.8125	1.000	1	a	?	d	?	?
Si141	Si	0.333333333333	0.666666666667	0.8125	1.000	1	a	?	d	?	?
Si142	Si	0.833333333333	0.666666666667	0.8125	1.000	1	a	?	d	?	?
Si143	Si	0.333333333333	0.166666666667	0.9375	1.000	1	a	?	d	?	?
Si144	Si	0.666666666667	0.333333333333	0.9375	1.000	1	a	?	d	?	?
Si145	Si	0.833333333333	0.166666666667	0.9375	1.000	1	a	?	d	?	?
Si146	Si	0.166666666667	0.833333333333	0.9375	1.000	1	a	?	d	?	?
Si21	Si	0.333333333333	0.666666666667	0.9375	1.000	1	a	?	d	?	?
Si22	Si	0.666666666667	0.833333333333	0.9375	1.000	1	a	?	d	?	?
